<?xml version="1.0" encoding="UTF-8"?>

<!-- generated on 2026-01-21 20:24:04.808015 by Eclipse SUMO osmWebWizard.py v1.25.0
  options: 
-->

<additional xmlns:xsi="http://www.w3.org/2001/XMLSchema-instance" xsi:noNamespaceSchemaLocation="http://sumo.dlr.de/xsd/additional_file.xsd">
   <edgeData id="wizard_example" period="3600" file="edgeData.xml"/>
</additional>
